


 15 14  0  0000  0  0  0  0  0999 V2000
    8.0622    0.2500    0.0000 O   0  0  0  0  0  0  0  0  0  0  0
    5.4641   -0.2500    0.0000 O   0  0  0  0  0  0  0  0  0  0  0
    9.7942    0.2500    0.0000 O   0  0  0  0  0  0  0  0  0  0  0
    3.7321   -0.2500    0.0000 O   0  0  0  0  0  0  0  0  0  0  0
    7.1962   -0.2500    0.0000 C   0  0  0  0  0  0  0  0  0  0  0
    6.3301    0.2500    0.0000 C   0  0  0  0  0  0  0  0  0  0  0
    8.9282   -0.2500    0.0000 C   0  0  0  0  0  0  0  0  0  0  0
    7.1962   -1.2500    0.0000 C   0  0  0  0  0  0  0  0  0  0  0
    4.5981    0.2500    0.0000 C   0  0  0  0  0  0  0  0  0  0  0
    8.9282   -1.2500    0.0000 C   0  0  0  0  0  0  0  0  0  0  0
    4.5981    1.2500    0.0000 C   0  0  0  0  0  0  0  0  0  0  0
   10.6603   -0.2500    0.0000 C   0  0  0  0  0  0  0  0  0  0  0
    2.8660    0.2500    0.0000 C   0  0  0  0  0  0  0  0  0  0  0
   11.5263    0.2500    0.0000 C   0  0  0  0  0  0  0  0  0  0  0
    2.0000   -0.2500    0.0000 C   0  0  0  0  0  0  0  0  0  0  0
  1  5  1  0
  1  7  1  0
  2  6  1  0
  2  9  1  0
  3  7  1  0
  3 12  1  0
  4  9  1  0
  4 13  1  0
  5  6  1  0
  5  8  1  0
  7 10  1  0
  9 11  1  0
 12 14  1  0
 13 15  1  0
M  END

> <PUBCHEM_BONDANNOTATIONS>
5  8  3
7  10  3
9  11  3

> <StdInChI>
InChI=1S/C11H24O4/c1-6-12-10(4)14-8-9(3)15-11(5)13-7-2/h9-11H,6-8H2,1-5H3

> <StdInChIKey>
TZVJNJVDGXFMCF-UHFFFAOYSA-N

> <AuxInfo>
1/0/N:15,14,8,11,10,13,12,6,5,9,7,4,3,2,1/rA:39cOOOOCCCCCCCCCCCHHHHHHHHHHHHHHHHHHHHHHHH/rB:;;;s1;s2s5;s1s3;s5;s2s4;s7;s9;s3;s4;s12;s13;s5;s6;s6;s7;s8;s8;s8;s9;s10;s10;s10;s11;s11;s11;s12;s12;s13;s13;s14;s14;s14;s15;s15;s15;/rC:8.0622,.25,0;5.4641,-.25,0;9.7942,.25,0;3.7321,-.25,0;7.1962,-.25,0;6.3301,.25,0;8.9282,-.25,0;7.1962,-1.25,0;4.5981,.25,0;8.9282,-1.25,0;4.5981,1.25,0;10.6603,-.25,0;2.866,.25,0;11.5263,.25,0;2,-.25,0;7.7331,-.56,0;5.9316,.7249,0;6.7287,.7249,0;9.4651,-.56,0;6.5762,-1.25,0;7.1962,-1.87,0;7.8162,-1.25,0;5.135,.56,0;8.3082,-1.25,0;8.9282,-1.87,0;9.5482,-1.25,0;3.9781,1.25,0;4.5981,1.87,0;5.2181,1.25,0;10.2617,-.7249,0;11.0588,-.7249,0;3.2646,.7249,0;2.4675,.7249,0;11.8363,-.2869,0;12.0632,.56,0;11.2163,.7869,0;1.69,.2869,0;1.4631,-.56,0;2.31,-.7869,0;

> <Formula>
C11 H24 O4

> <Mw>
220.3059

> <SMILES>
O(C([H])(C([H])([H])[H])OC([H])([H])C([H])([H])[H])C([H])(C([H])([H])[H])C([H])([H])OC([H])(C([H])([H])[H])OC([H])([H])C([H])([H])[H]

> <CSID>
4515081

$$$$
