1_2_DI_1_ETHOXY_ETHOXY_PROPANE


 15 14  0  0000  0  0  0  0  0999 V2000
    8.0622    0.2500    0.0000 O   0  0  0  0  0  0  0  0  0  0  0
    5.4641   -0.2500    0.0000 O   0  0  0  0  0  0  0  0  0  0  0
    9.7942    0.2500    0.0000 O   0  0  0  0  0  0  0  0  0  0  0
    3.7321   -0.2500    0.0000 O   0  0  0  0  0  0  0  0  0  0  0
    7.1962   -0.2500    0.0000 C   0  0  0  0  0  0  0  0  0  0  0
    6.3301    0.2500    0.0000 C   0  0  0  0  0  0  0  0  0  0  0
    8.9282   -0.2500    0.0000 C   0  0  0  0  0  0  0  0  0  0  0
    7.1962   -1.2500    0.0000 C   0  0  0  0  0  0  0  0  0  0  0
    4.5981    0.2500    0.0000 C   0  0  0  0  0  0  0  0  0  0  0
    8.9282   -1.2500    0.0000 C   0  0  0  0  0  0  0  0  0  0  0
    4.5981    1.2500    0.0000 C   0  0  0  0  0  0  0  0  0  0  0
   10.6603   -0.2500    0.0000 C   0  0  0  0  0  0  0  0  0  0  0
    2.8660    0.2500    0.0000 C   0  0  0  0  0  0  0  0  0  0  0
   11.5263    0.2500    0.0000 C   0  0  0  0  0  0  0  0  0  0  0
    2.0000   -0.2500    0.0000 C   0  0  0  0  0  0  0  0  0  0  0
  1  5  1  0
  1  7  1  0
  2  6  1  0
  2  9  1  0
  3  7  1  0
  3 12  1  0
  4  9  1  0
  4 13  1  0
  5  6  1  0
  5  8  1  0
  7 10  1  0
  9 11  1  0
 12 14  1  0
 13 15  1  0
M  END

> <PUBCHEM_BONDANNOTATIONS>
5  8  3
7  10  3
9  11  3

> <StdInChI>
InChI=1S/C11H24O4/c1-6-12-10(4)14-8-9(3)15-11(5)13-7-2/h9-11H,6-8H2,1-5H3

> <StdInChIKey>
TZVJNJVDGXFMCF-UHFFFAOYSA-N

> <AuxInfo>
1/0/N:15,14,8,11,10,13,12,6,5,9,7,4,3,2,1/rA:39cOOOOCCCCCCCCCCCHHHHHHHHHHHHHHHHHHHHHHHH/rB:;;;s1;s2s5;s1s3;s5;s2s4;s7;s9;s3;s4;s12;s13;s5;s6;s6;s7;s8;s8;s8;s9;s10;s10;s10;s11;s11;s11;s12;s12;s13;s13;s14;s14;s14;s15;s15;s15;/rC:8.0622,.25,0;5.4641,-.25,0;9.7942,.25,0;3.7321,-.25,0;7.1962,-.25,0;6.3301,.25,0;8.9282,-.25,0;7.1962,-1.25,0;4.5981,.25,0;8.9282,-1.25,0;4.5981,1.25,0;10.6603,-.25,0;2.866,.25,0;11.5263,.25,0;2,-.25,0;7.7331,-.56,0;5.9316,.7249,0;6.7287,.7249,0;9.4651,-.56,0;6.5762,-1.25,0;7.1962,-1.87,0;7.8162,-1.25,0;5.135,.56,0;8.3082,-1.25,0;8.9282,-1.87,0;9.5482,-1.25,0;3.9781,1.25,0;4.5981,1.87,0;5.2181,1.25,0;10.2617,-.7249,0;11.0588,-.7249,0;3.2646,.7249,0;2.4675,.7249,0;11.8363,-.2869,0;12.0632,.56,0;11.2163,.7869,0;1.69,.2869,0;1.4631,-.56,0;2.31,-.7869,0;

> <Formula>
C11 H24 O4

> <Mw>
220.3059

> <SMILES>
O(C([H])(C([H])([H])[H])OC([H])([H])C([H])([H])[H])C([H])(C([H])([H])[H])C([H])([H])OC([H])(C([H])([H])[H])OC([H])([H])C([H])([H])[H]

> <CSID>
4515081

> <molfile>
1_2_DI_1_ETHOXY_ETHOXY_PROPANE

> <user>
Tiago

$$$$
1_2_BUTANEDITHIOL


 6  5  0  0000  0  0  0  0  0999 V2000
    2.4750   -1.4289    0.0000 C   0  0  0  0  0  0  0  0  0  0  0
    2.0625   -0.7145    0.0000 C   0  0  0  0  0  0  0  0  0  0  0
    1.2375   -0.7145    0.0000 C   0  0  0  0  0  0  0  0  0  0  0
    0.8250   -1.4289    0.0000 S   0  0  0  0  0  0  0  0  0  0  0
    0.8250    0.0000    0.0000 C   0  0  0  0  0  0  0  0  0  0  0
    0.0000    0.0000    0.0000 S   0  0  0  0  0  0  0  0  0  0  0
  1  2  1  0
  2  3  1  0
  3  4  1  0
  3  5  1  0
  5  6  1  0
M  END

> <StdInChI>
InChI=1S/C4H10S2/c1-2-4(6)3-5/h4-6H,2-3H2,1H3

> <StdInChIKey>
LFTMJBWNOFFSRW-UHFFFAOYSA-N

> <AuxInfo>
1/0/N:1,2,5,3,6,4/rA:6nCCCSCS/rB:s1;s2;s3;s3;s5;/rC:2.475,-1.4289,0;2.0625,-.7145,0;1.2375,-.7145,0;.825,-1.4289,0;.825,0,0;;

> <Formula>
C4 H10 S2

> <Mw>
122.2522

> <SMILES>
CCC(CS)S

> <CSID>
55704

> <molfile>
1_2_BUTANEDITHIOL

> <user>
Tiago

$$$$
1_2_PROPANEDITHIOL


 5  4  0  0000  0  0  0  0  0999 V2000
    2.0625   -0.7145    0.0000 C   0  0  0  0  0  0  0  0  0  0  0
    1.2375   -0.7145    0.0000 C   0  0  0  0  0  0  0  0  0  0  0
    0.8250   -1.4289    0.0000 S   0  0  0  0  0  0  0  0  0  0  0
    0.8250    0.0000    0.0000 C   0  0  0  0  0  0  0  0  0  0  0
    0.0000    0.0000    0.0000 S   0  0  0  0  0  0  0  0  0  0  0
  1  2  1  0
  2  3  1  0
  2  4  1  0
  4  5  1  0
M  END

> <StdInChI>
InChI=1S/C3H8S2/c1-3(5)2-4/h3-5H,2H2,1H3

> <StdInChIKey>
YGKHJWTVMIMEPQ-UHFFFAOYSA-N

> <AuxInfo>
1/0/N:1,4,2,5,3/rA:5nCCSCS/rB:s1;s2;s2;s4;/rC:2.0625,-.7145,0;1.2375,-.7145,0;.825,-1.4289,0;.825,0,0;;

> <Formula>
C3 H8 S2

> <Mw>
108.2256

> <SMILES>
CC(CS)S

> <CSID>
55160

> <molfile>
1_2_PROPANEDITHIOL

> <user>
Tiago

$$$$
1_2_3_TRIS_1_ETHOXY_ETHOXY_PROPANE


 21 20  0  0000  0  0  0  0  0999 V2000
    8.0622    2.0000    0.0000 O   0  0  0  0  0  0  0  0  0  0  0
    5.4641    1.5000    0.0000 O   0  0  0  0  0  0  0  0  0  0  0
    6.3301    0.0000    0.0000 O   0  0  0  0  0  0  0  0  0  0  0
    9.7942    2.0000    0.0000 O   0  0  0  0  0  0  0  0  0  0  0
    3.7321    1.5000    0.0000 O   0  0  0  0  0  0  0  0  0  0  0
    5.4641   -1.5000    0.0000 O   0  0  0  0  0  0  0  0  0  0  0
    7.1962    1.5000    0.0000 C   0  0  0  0  0  0  0  0  0  0  0
    6.3301    2.0000    0.0000 C   0  0  0  0  0  0  0  0  0  0  0
    7.1962    0.5000    0.0000 C   0  0  0  0  0  0  0  0  0  0  0
    8.9282    1.5000    0.0000 C   0  0  0  0  0  0  0  0  0  0  0
    4.5981    2.0000    0.0000 C   0  0  0  0  0  0  0  0  0  0  0
    6.3301   -1.0000    0.0000 C   0  0  0  0  0  0  0  0  0  0  0
    8.9282    0.5000    0.0000 C   0  0  0  0  0  0  0  0  0  0  0
    4.5981    3.0000    0.0000 C   0  0  0  0  0  0  0  0  0  0  0
    7.1962   -1.5000    0.0000 C   0  0  0  0  0  0  0  0  0  0  0
   10.6603    1.5000    0.0000 C   0  0  0  0  0  0  0  0  0  0  0
    2.8660    2.0000    0.0000 C   0  0  0  0  0  0  0  0  0  0  0
    5.4641   -2.5000    0.0000 C   0  0  0  0  0  0  0  0  0  0  0
   11.5263    2.0000    0.0000 C   0  0  0  0  0  0  0  0  0  0  0
    2.0000    1.5000    0.0000 C   0  0  0  0  0  0  0  0  0  0  0
    4.5981   -3.0000    0.0000 C   0  0  0  0  0  0  0  0  0  0  0
  1  7  1  0
  1 10  1  0
  2  8  1  0
  2 11  1  0
  3  9  1  0
  3 12  1  0
  4 10  1  0
  4 16  1  0
  5 11  1  0
  5 17  1  0
  6 12  1  0
  6 18  1  0
  7  8  1  0
  7  9  1  0
 10 13  1  0
 11 14  1  0
 12 15  1  0
 16 19  1  0
 17 20  1  0
 18 21  1  0
M  END

> <PUBCHEM_BONDANNOTATIONS>
10  13  3
11  14  3
12  15  3

> <StdInChI>
InChI=1S/C15H32O6/c1-7-16-12(4)19-10-15(21-14(6)18-9-3)11-20-13(5)17-8-2/h12-15H,7-11H2,1-6H3

> <StdInChIKey>
NSVOKCWMHBVBIU-UHFFFAOYSA-N

> <AuxInfo>
1/0/N:20,21,19,14,15,13,17,18,16,8,9,11,12,10,7,5,6,4,2,3,1/E:(1,2)(4,5)(7,8)(10,11)(12,13)(16,17)(19,20)/rA:53cOOOOOOCCCCCCCCCCCCCCCHHHHHHHHHHHHHHHHHHHHHHHHHHHHHHHH/rB:;;;;;s1;s2s7;s3s7;s1s4;s2s5;s3s6;s10;s11;s12;s4;s5;s6;s16;s17;s18;s7;s8;s8;s9;s9;s10;s11;s12;s13;s13;s13;s14;s14;s14;s15;s15;s15;s16;s16;s17;s17;s18;s18;s19;s19;s19;s20;s20;s20;s21;s21;s21;/rC:8.0622,2,0;5.4641,1.5,0;6.3301,0,0;9.7942,2,0;3.7321,1.5,0;5.4641,-1.5,0;7.1962,1.5,0;6.3301,2,0;7.1962,.5,0;8.9282,1.5,0;4.5981,2,0;6.3301,-1,0;8.9282,.5,0;4.5981,3,0;7.1962,-1.5,0;10.6603,1.5,0;2.866,2,0;5.4641,-2.5,0;11.5263,2,0;2,1.5,0;4.5981,-3,0;7.7331,1.19,0;5.9316,2.4749,0;6.7287,2.4749,0;7.8067,.6077,0;7.4082,-.0826,0;9.4651,1.19,0;5.135,2.31,0;6.8671,-.69,0;8.3082,.5,0;8.9282,-.12,0;9.5482,.5,0;3.9781,3,0;4.5981,3.62,0;5.2181,3,0;7.5062,-.9631,0;7.7331,-1.81,0;6.8862,-2.0369,0;10.2617,1.0251,0;11.0588,1.0251,0;3.2646,2.4749,0;2.4675,2.4749,0;5.6762,-3.0826,0;6.0747,-2.3923,0;11.8363,1.4631,0;12.0632,2.31,0;11.2163,2.5369,0;1.69,2.0369,0;1.4631,1.19,0;2.31,.9631,0;4.2881,-2.4631,0;4.0611,-3.31,0;4.9081,-3.5369,0;

> <Formula>
C15 H32 O6

> <Mw>
308.411

> <SMILES>
O(C([H])(C([H])([H])[H])OC([H])([H])C([H])([H])[H])C([H])(C([H])([H])OC([H])(C([H])([H])[H])OC([H])([H])C([H])([H])[H])C([H])([H])OC([H])(C([H])([H])[H])OC([H])([H])C([H])([H])[H]

> <CSID>
4515082

> <molfile>
1_2_3_TRIS_1_ETHOXY_ETHOXY_PROPANE

> <user>
Tiago

$$$$
1_2_5_6_TETRAHYDROCUMINIC_ACID


 12 12  0  0000  0  0  0  0  0999 V2000
    3.7321    2.1900    0.0000 O   0  0  0  0  0  0  0  0  0  0  0
    2.0000    2.1900    0.0000 O   0  0  0  0  0  0  0  0  0  0  0
    2.8660    0.6900    0.0000 C   0  0  0  0  0  0  0  0  0  0  0
    3.7321    0.1900    0.0000 C   0  0  0  0  0  0  0  0  0  0  0
    3.7321   -0.8100    0.0000 C   0  0  0  0  0  0  0  0  0  0  0
    2.8660   -1.3100    0.0000 C   0  0  0  0  0  0  0  0  0  0  0
    2.0000    0.1900    0.0000 C   0  0  0  0  0  0  0  0  0  0  0
    2.8660   -2.3100    0.0000 C   0  0  0  0  0  0  0  0  0  0  0
    2.0000   -0.8100    0.0000 C   0  0  0  0  0  0  0  0  0  0  0
    2.8660    1.6900    0.0000 C   0  0  0  0  0  0  0  0  0  0  0
    3.7321   -2.8100    0.0000 C   0  0  0  0  0  0  0  0  0  0  0
    2.0000   -2.8100    0.0000 C   0  0  0  0  0  0  0  0  0  0  0
  1 10  1  0
  2 10  2  0
  3  4  1  0
  3  7  1  0
  3 10  1  0
  4  5  1  0
  5  6  1  0
  6  8  1  0
  6  9  2  0
  7  9  1  0
  8 11  1  0
  8 12  1  0
M  END

> <PUBCHEM_BONDANNOTATIONS>
3  10  3

> <StdInChI>
InChI=1S/C10H16O2/c1-7(2)8-3-5-9(6-4-8)10(11)12/h3,7,9H,4-6H2,1-2H3,(H,11,12)

> <StdInChIKey>
SVVRHSSIDPLFOP-UHFFFAOYSA-N

> <AuxInfo>
1/1/N:11,12,9,5,7,4,8,6,3,10,1,2/E:(1,2)(11,12)/rA:28cOOCCCCCCCCCCHHHHHHHHHHHHHHHH/rB:;;s3;s4;s5;s3;s6;d6s7;s1d2s3;s8;s8;s3;s4;s4;s5;s5;s7;s7;s8;s9;s11;s11;s11;s12;s12;s12;s1;/rC:3.7321,2.19,0;2,2.19,0;2.866,.69,0;3.7321,.19,0;3.7321,-.81,0;2.866,-1.31,0;2,.19,0;2.866,-2.31,0;2,-.81,0;2.866,1.69,0;3.7321,-2.81,0;2,-2.81,0;3.403,1,0;3.9441,.7726,0;4.3426,.0823,0;4.3426,-.7023,0;3.9441,-1.3926,0;1.3894,.0823,0;1.7879,.7726,0;2.866,-2.93,0;1.4631,-1.12,0;4.0421,-2.2731,0;4.269,-3.12,0;3.4221,-3.3469,0;2.31,-3.3469,0;1.4631,-3.12,0;1.69,-2.2731,0;3.7321,2.81,0;

> <Formula>
C10 H16 O2

> <Mw>
168.2328

> <SMILES>
O([H])C(C1([H])C([H])([H])C([H])=C(C([H])(C([H])([H])[H])C([H])([H])[H])C([H])([H])C1([H])[H])=O

> <CSID>
55952

> <molfile>
1_2_5_6_TETRAHYDROCUMINIC_ACID

> <user>
Tiago

$$$$
