c-1_2_3_TRIS_1_ETHOXY_ETHOXY_PROPANE
  1228              3D

 53 52  0  0  0  0  0  0  0  0999 V2000
    0.4964   -1.8805    1.1654 O   0  0  0  0  0  0  0  0  0  0  0  0
    3.1159   -0.9006    0.1043 O   0  0  0  0  0  0  0  0  0  0  0  0
   -0.8289    1.0276   -0.3162 O   0  0  0  0  0  0  0  0  0  0  0  0
   -0.6028   -3.2681   -0.4241 O   0  0  0  0  0  0  0  0  0  0  0  0
    5.0281   -1.5132    1.3531 O   0  0  0  0  0  0  0  0  0  0  0  0
   -3.1487    1.1742   -0.7301 O   0  0  0  0  0  0  0  0  0  0  0  0
    0.7374   -0.6681    0.4392 C   0  0  0  0  0  0  0  0  0  0  0  0
    2.1287   -0.1491    0.8070 C   0  0  0  0  0  0  0  0  0  0  0  0
   -0.3454    0.3436    0.8418 C   0  0  0  0  0  0  0  0  0  0  0  0
    0.5775   -3.0569    0.3545 C   0  0  0  0  0  0  0  0  0  0  0  0
    4.4483   -0.5429    0.4783 C   0  0  0  0  0  0  0  0  0  0  0  0
   -1.9627    0.3985   -0.9205 C   0  0  0  0  0  0  0  0  0  0  0  0
    0.9945   -4.2228    1.2419 C   0  0  0  0  0  0  0  0  0  0  0  0
    5.2408   -0.2337   -0.7858 C   0  0  0  0  0  0  0  0  0  0  0  0
   -1.7092    0.3329   -2.4187 C   0  0  0  0  0  0  0  0  0  0  0  0
   -1.6621   -4.0229    0.1532 C   0  0  0  0  0  0  0  0  0  0  0  0
    5.7095   -2.6183    0.7729 C   0  0  0  0  0  0  0  0  0  0  0  0
   -3.8879    0.7756    0.4208 C   0  0  0  0  0  0  0  0  0  0  0  0
   -2.4164   -3.2623    1.2316 C   0  0  0  0  0  0  0  0  0  0  0  0
    4.7591   -3.7040    0.3046 C   0  0  0  0  0  0  0  0  0  0  0  0
   -5.1644    1.5937    0.4656 C   0  0  0  0  0  0  0  0  0  0  0  0
    0.6841   -0.8464   -0.6420 H   0  0  0  0  0  0  0  0  0  0  0  0
    1.3880   -2.9298   -0.3731 H   0  0  0  0  0  0  0  0  0  0  0  0
   -1.3101   -4.9939    0.5194 H   0  0  0  0  0  0  0  0  0  0  0  0
   -2.3579   -4.2516   -0.6630 H   0  0  0  0  0  0  0  0  0  0  0  0
    2.2265    0.9031    0.5195 H   0  0  0  0  0  0  0  0  0  0  0  0
    2.2991   -0.2400    1.8851 H   0  0  0  0  0  0  0  0  0  0  0  0
    4.4266    0.3825    1.0627 H   0  0  0  0  0  0  0  0  0  0  0  0
    6.3917   -2.3142   -0.0272 H   0  0  0  0  0  0  0  0  0  0  0  0
    6.3441   -3.0437    1.5600 H   0  0  0  0  0  0  0  0  0  0  0  0
    0.0592    1.1084    1.5152 H   0  0  0  0  0  0  0  0  0  0  0  0
   -1.1715   -0.1240    1.3892 H   0  0  0  0  0  0  0  0  0  0  0  0
   -2.1021   -0.6287   -0.5579 H   0  0  0  0  0  0  0  0  0  0  0  0
   -4.1342   -0.2912    0.3649 H   0  0  0  0  0  0  0  0  0  0  0  0
   -3.2969    0.9624    1.3237 H   0  0  0  0  0  0  0  0  0  0  0  0
    0.3334   -4.3387    2.1043 H   0  0  0  0  0  0  0  0  0  0  0  0
    2.0039   -4.0542    1.6269 H   0  0  0  0  0  0  0  0  0  0  0  0
    1.0140   -5.1586    0.6762 H   0  0  0  0  0  0  0  0  0  0  0  0
    6.2903   -0.0296   -0.5523 H   0  0  0  0  0  0  0  0  0  0  0  0
    4.8355    0.6593   -1.2730 H   0  0  0  0  0  0  0  0  0  0  0  0
    5.1905   -1.0525   -1.5104 H   0  0  0  0  0  0  0  0  0  0  0  0
   -1.4794    1.3218   -2.8277 H   0  0  0  0  0  0  0  0  0  0  0  0
   -0.8697   -0.3334   -2.6424 H   0  0  0  0  0  0  0  0  0  0  0  0
   -2.5887   -0.0578   -2.9406 H   0  0  0  0  0  0  0  0  0  0  0  0
   -2.1423   -2.2067    1.2681 H   0  0  0  0  0  0  0  0  0  0  0  0
   -2.2240   -3.6990    2.2179 H   0  0  0  0  0  0  0  0  0  0  0  0
   -3.4960   -3.3122    1.0485 H   0  0  0  0  0  0  0  0  0  0  0  0
    3.9615   -3.3151   -0.3340 H   0  0  0  0  0  0  0  0  0  0  0  0
    4.3088   -4.2136    1.1625 H   0  0  0  0  0  0  0  0  0  0  0  0
    5.3119   -4.4519   -0.2757 H   0  0  0  0  0  0  0  0  0  0  0  0
   -5.7513    1.3311    1.3513 H   0  0  0  0  0  0  0  0  0  0  0  0
   -5.7794    1.4056   -0.4204 H   0  0  0  0  0  0  0  0  0  0  0  0
   -4.9407    2.6646    0.5103 H   0  0  0  0  0  0  0  0  0  0  0  0
  1  7  1  0  0  0  0
  1 10  1  0  0  0  0
  2  8  1  0  0  0  0
  2 11  1  0  0  0  0
  3  9  1  0  0  0  0
  3 12  1  0  0  0  0
  4 10  1  0  0  0  0
  4 16  1  0  0  0  0
  5 11  1  0  0  0  0
  5 17  1  0  0  0  0
  6 12  1  0  0  0  0
  6 18  1  0  0  0  0
  7  8  1  0  0  0  0
  7  9  1  0  0  0  0
 10 13  1  0  0  0  0
 11 14  1  0  0  0  0
 12 15  1  0  0  0  0
 16 19  1  0  0  0  0
 17 20  1  0  0  0  0
 18 21  1  0  0  0  0
  7 22  1  0  0  0  0
 10 23  1  0  0  0  0
 16 24  1  0  0  0  0
 16 25  1  0  0  0  0
  8 26  1  0  0  0  0
  8 27  1  0  0  0  0
 11 28  1  0  0  0  0
 17 29  1  0  0  0  0
 17 30  1  0  0  0  0
  9 31  1  0  0  0  0
  9 32  1  0  0  0  0
 12 33  1  0  0  0  0
 18 34  1  0  0  0  0
 18 35  1  0  0  0  0
 13 36  1  0  0  0  0
 13 37  1  0  0  0  0
 13 38  1  0  0  0  0
 14 39  1  0  0  0  0
 14 40  1  0  0  0  0
 14 41  1  0  0  0  0
 15 42  1  0  0  0  0
 15 43  1  0  0  0  0
 15 44  1  0  0  0  0
 19 45  1  0  0  0  0
 19 46  1  0  0  0  0
 19 47  1  0  0  0  0
 20 48  1  0  0  0  0
 20 49  1  0  0  0  0
 20 50  1  0  0  0  0
 21 51  1  0  0  0  0
 21 52  1  0  0  0  0
 21 53  1  0  0  0  0
M  END
>  <AuxInfo>
1/0/N:20,21,19,14,15,13,17,18,16,8,9,11,12,10,7,5,6,4,2,3,1/E:(1,2)(4,5)(7,8)(10,11)(12,13)(16,17)(19,20)/rA:53cOOOOOOCCCCCCCCCCCCCCCHHHHHHHHHHHHHHHHHHHHHHHHHHHHHHHH/rB:;;;;;s1;s2s7;s3s7;s1s4;s2s5;s3s6;s10;s11;s12;s4;s5;s6;s16;s17;s18;s7;s8;s8;s9;s9;s10;s11;s12;s13;s13;s13;s14;s14;s14;s15;s15;s15;s16;s16;s17;s17;s18;s18;s19;s19;s19;s20;s20;s20;s21;s21;s21;/rC:8.0622,2,0;5.4641,1.5,0;6.3301,0,0;9.7942,2,0;3.7321,1.5,0;5.4641,-1.5,0;7.1962,1.5,0;6.3301,2,0;7.1962,.5,0;8.9282,1.5,0;4.5981,2,0;6.3301,-1,0;8.9282,.5,0;4.5981,3,0;7.1962,-1.5,0;10.6603,1.5,0;2.866,2,0;5.4641,-2.5,0;11.5263,2,0;2,1.5,0;4.5981,-3,0;7.7331,1.19,0;5.9316,2.4749,0;6.7287,2.4749,0;7.8067,.6077,0;7.4082,-.0826,0;9.4651,1.19,0;5.135,2.31,0;6.8671,-.69,0;8.3082,.5,0;8.9282,-.12,0;9.5482,.5,0;3.9781,3,0;4.5981,3.62,0;5.2181,3,0;7.5062,-.9631,0;7.7331,-1.81,0;6.8862,-2.0369,0;10.2617,1.0251,0;11.0588,1.0251,0;3.2646,2.4749,0;2.4675,2.4749,0;5.6762,-3.0826,0;6.0747,-2.3923,0;11.8363,1.4631,0;12.0632,2.31,0;11.2163,2.5369,0;1.69,2.0369,0;1.4631,1.19,0;2.31,.9631,0;4.2881,-2.4631,0;4.0611,-3.31,0;4.9081,-3.5369,0;

>  <CSID>
4515082

>  <Formula>
C15 H32 O6

>  <Mw>
308.411

>  <PUBCHEM_BONDANNOTATIONS>
10  13  3
11  14  3
12  15  3

>  <SMILES>
O(C([H])(C([H])([H])[H])OC([H])([H])C([H])([H])[H])C([H])(C([H])([H])OC([H])(C([H])([H])[H])OC([H])([H])C([H])([H])[H])C([H])([H])OC([H])(C([H])([H])[H])OC([H])([H])C([H])([H])[H]

>  <StdInChI>
InChI=1S/C15H32O6/c1-7-16-12(4)19-10-15(21-14(6)18-9-3)11-20-13(5)17-8-2/h12-15H,7-11H2,1-6H3

>  <StdInChIKey>
NSVOKCWMHBVBIU-UHFFFAOYSA-N

>  <energy>
58.553432559925014

> <molfile>
c-1_2_3_TRIS_1_ETHOXY_ETHOXY_PROPANE

> <user>
Tiago

$$$$
c-1_2_5_6_TETRAHYDROCUMINIC_ACID
  Mrv1622904071714303D              19.04067

 28 28  0  0  0  0            999 V2000
   -2.0990   -1.4600   -1.1897 O   0  0  0  0  0  0  0  0  0  0  0  0
   -3.1854   -1.8294    0.7641 O   0  0  0  0  0  0  0  0  0  0  0  0
   -2.3613    0.4097    0.3122 C   0  0  1  0  0  0  0  0  0  0  0  0
   -1.4026    0.5160    1.5024 C   0  0  2  0  0  0  0  0  0  0  0  0
   -0.0302   -0.0687    1.1462 C   0  0  1  0  0  0  0  0  0  0  0  0
    0.4794    0.4053   -0.1994 C   0  0  0  0  0  0  0  0  0  0  0  0
   -1.8076    1.2393   -0.8542 C   0  0  2  0  0  0  0  0  0  0  0  0
    1.9360    0.1583   -0.5476 C   0  0  2  0  0  0  0  0  0  0  0  0
   -0.3345    1.0295   -1.0738 C   0  0  0  0  0  0  0  0  0  0  0  0
   -2.6084   -1.0643    0.0011 C   0  0  0  0  0  0  0  0  0  0  0  0
    2.3058   -1.3263   -0.5110 C   0  0  0  0  0  0  0  0  0  0  0  0
    2.8718    0.9758    0.3421 C   0  0  0  0  0  0  0  0  0  0  0  0
   -1.4096   -2.1508   -1.0863 H   0  0  0  0  0  0  0  0  0  0  0  0
   -3.3381    0.8233    0.5957 H   0  0  0  0  0  0  0  0  0  0  0  0
   -1.8080    0.0053    2.3828 H   0  0  0  0  0  0  0  0  0  0  0  0
   -1.2856    1.5723    1.7835 H   0  0  0  0  0  0  0  0  0  0  0  0
   -1.9701    2.3067   -0.6567 H   0  0  0  0  0  0  0  0  0  0  0  0
   -2.3481    1.0054   -1.7791 H   0  0  0  0  0  0  0  0  0  0  0  0
    0.6719    0.1942    1.9443 H   0  0  0  0  0  0  0  0  0  0  0  0
   -0.0992   -1.1642    1.1338 H   0  0  0  0  0  0  0  0  0  0  0  0
    2.1114    0.4906   -1.5803 H   0  0  0  0  0  0  0  0  0  0  0  0
    0.0605    1.3889   -2.0197 H   0  0  0  0  0  0  0  0  0  0  0  0
    1.6616   -1.9093   -1.1793 H   0  0  0  0  0  0  0  0  0  0  0  0
    3.3371   -1.4650   -0.8538 H   0  0  0  0  0  0  0  0  0  0  0  0
    2.2307   -1.7479    0.4967 H   0  0  0  0  0  0  0  0  0  0  0  0
    3.8863    0.9642   -0.0704 H   0  0  0  0  0  0  0  0  0  0  0  0
    2.5520    2.0221    0.3945 H   0  0  0  0  0  0  0  0  0  0  0  0
    2.9190    0.5790    1.3620 H   0  0  0  0  0  0  0  0  0  0  0  0
  1 10  1  0  0  0  0
  2 10  2  0  0  0  0
  3  4  1  0  0  0  0
  3  7  1  0  0  0  0
  3 10  1  0  0  0  0
  4  5  1  0  0  0  0
  5  6  1  0  0  0  0
  6  8  1  0  0  0  0
  6  9  2  0  0  0  0
  7  9  1  0  0  0  0
  8 11  1  0  0  0  0
  8 12  1  0  0  0  0
  1 13  1  0  0  0  0
  3 14  1  0  0  0  0
  4 15  1  0  0  0  0
  4 16  1  0  0  0  0
  7 17  1  0  0  0  0
  7 18  1  0  0  0  0
  5 19  1  0  0  0  0
  5 20  1  0  0  0  0
  8 21  1  0  0  0  0
  9 22  1  0  0  0  0
 11 23  1  0  0  0  0
 11 24  1  0  0  0  0
 11 25  1  0  0  0  0
 12 26  1  0  0  0  0
 12 27  1  0  0  0  0
 12 28  1  0  0  0  0
M  END

> <molfile>
c-1_2_5_6_TETRAHYDROCUMINIC_ACID

> <user>
Tiago

$$$$
c-1_2_BUTANEDITHIOL
  1228              3D

 16 15  0  0  0  0  0  0  0  0999 V2000
   -2.0635    0.5313   -0.1326 C   0  0  0  0  0  0  0  0  0  0  0  0
   -1.0216   -0.5532    0.1175 C   0  0  0  0  0  0  0  0  0  0  0  0
    0.4437   -0.1290   -0.0967 C   0  0  0  0  0  0  0  0  0  0  0  0
    0.8019    0.0282   -1.8880 S   0  0  0  0  0  0  0  0  0  0  0  0
    0.8029    1.1589    0.6568 C   0  0  0  0  0  0  0  0  0  0  0  0
    2.5953    1.3041    0.9529 S   0  0  0  0  0  0  0  0  0  0  0  0
   -3.0655    0.0892   -0.1344 H   0  0  0  0  0  0  0  0  0  0  0  0
   -1.9196    1.0265   -1.0971 H   0  0  0  0  0  0  0  0  0  0  0  0
   -2.0402    1.2897    0.6560 H   0  0  0  0  0  0  0  0  0  0  0  0
   -1.1317   -0.9016    1.1527 H   0  0  0  0  0  0  0  0  0  0  0  0
   -1.2546   -1.4240   -0.5091 H   0  0  0  0  0  0  0  0  0  0  0  0
    1.0668   -0.9552    0.2668 H   0  0  0  0  0  0  0  0  0  0  0  0
    2.0944    0.3634   -1.7541 H   0  0  0  0  0  0  0  0  0  0  0  0
    0.4632    2.0532    0.1222 H   0  0  0  0  0  0  0  0  0  0  0  0
    0.3226    1.1674    1.6412 H   0  0  0  0  0  0  0  0  0  0  0  0
    2.6630    2.6388    0.8455 H   0  0  0  0  0  0  0  0  0  0  0  0
  1  2  1  0  0  0  0
  2  3  1  0  0  0  0
  3  4  1  0  0  0  0
  3  5  1  0  0  0  0
  5  6  1  0  0  0  0
  1  7  1  0  0  0  0
  1  8  1  0  0  0  0
  1  9  1  0  0  0  0
  2 10  1  0  0  0  0
  2 11  1  0  0  0  0
  3 12  1  0  0  0  0
  4 13  1  0  0  0  0
  5 14  1  0  0  0  0
  5 15  1  0  0  0  0
  6 16  1  0  0  0  0
M  END
>  <AuxInfo>
1/0/N:1,2,5,3,6,4/rA:6nCCCSCS/rB:s1;s2;s3;s3;s5;/rC:2.475,-1.4289,0;2.0625,-.7145,0;1.2375,-.7145,0;.825,-1.4289,0;.825,0,0;;

>  <CSID>
55704

>  <Formula>
C4 H10 S2

>  <Mw>
122.2522

>  <SMILES>
CCC(CS)S

>  <StdInChI>
InChI=1S/C4H10S2/c1-2-4(6)3-5/h4-6H,2-3H2,1H3

>  <StdInChIKey>
LFTMJBWNOFFSRW-UHFFFAOYSA-N

>  <energy>
9.0917888080799862

> <molfile>
c-1_2_BUTANEDITHIOL

> <user>
Tiago

$$$$
c-1_2_DI_1_ETHOXY_ETHOXY_PROPANE
  1228              3D

 39 38  0  0  0  0  0  0  0  0999 V2000
   -1.7921   -1.6565   -0.6796 O   0  0  0  0  0  0  0  0  0  0  0  0
   -0.8230   -3.7661   -2.4918 O   0  0  0  0  0  0  0  0  0  0  0  0
   -3.8696   -0.6314   -0.8933 O   0  0  0  0  0  0  0  0  0  0  0  0
   -0.0603   -6.0260   -2.8804 O   0  0  0  0  0  0  0  0  0  0  0  0
   -0.4628   -1.7353   -1.1945 C   0  0  0  0  0  0  0  0  0  0  0  0
   -0.4754   -2.3868   -2.5810 C   0  0  0  0  0  0  0  0  0  0  0  0
   -2.4546   -0.4182   -0.9466 C   0  0  0  0  0  0  0  0  0  0  0  0
    0.3821   -2.5177   -0.1910 C   0  0  0  0  0  0  0  0  0  0  0  0
    0.0852   -4.6274   -3.1893 C   0  0  0  0  0  0  0  0  0  0  0  0
   -2.1036    0.5863    0.1405 C   0  0  0  0  0  0  0  0  0  0  0  0
   -0.0291   -4.4473   -4.7025 C   0  0  0  0  0  0  0  0  0  0  0  0
   -4.5868    0.0101   -1.9469 C   0  0  0  0  0  0  0  0  0  0  0  0
   -1.3380   -6.4428   -2.4020 C   0  0  0  0  0  0  0  0  0  0  0  0
   -4.6563   -0.8975   -3.1613 C   0  0  0  0  0  0  0  0  0  0  0  0
   -2.3702   -6.4885   -3.5135 C   0  0  0  0  0  0  0  0  0  0  0  0
   -0.0289   -0.7351   -1.2907 H   0  0  0  0  0  0  0  0  0  0  0  0
   -2.1544   -0.0397   -1.9331 H   0  0  0  0  0  0  0  0  0  0  0  0
   -5.5991    0.2199   -1.5761 H   0  0  0  0  0  0  0  0  0  0  0  0
   -4.1326    0.9766   -2.2031 H   0  0  0  0  0  0  0  0  0  0  0  0
    0.5034   -2.2429   -3.0476 H   0  0  0  0  0  0  0  0  0  0  0  0
   -1.2150   -1.9082   -3.2259 H   0  0  0  0  0  0  0  0  0  0  0  0
    1.1099   -4.3770   -2.8745 H   0  0  0  0  0  0  0  0  0  0  0  0
   -1.6695   -5.8280   -1.5623 H   0  0  0  0  0  0  0  0  0  0  0  0
   -1.2003   -7.4553   -2.0133 H   0  0  0  0  0  0  0  0  0  0  0  0
    0.5625   -1.9117    0.7025 H   0  0  0  0  0  0  0  0  0  0  0  0
   -0.1146   -3.4459    0.1224 H   0  0  0  0  0  0  0  0  0  0  0  0
    1.3571   -2.7804   -0.6186 H   0  0  0  0  0  0  0  0  0  0  0  0
   -2.6977    1.5030    0.0403 H   0  0  0  0  0  0  0  0  0  0  0  0
   -1.0482    0.8733    0.0859 H   0  0  0  0  0  0  0  0  0  0  0  0
   -2.2888    0.1763    1.1382 H   0  0  0  0  0  0  0  0  0  0  0  0
    0.6100   -3.6258   -5.0377 H   0  0  0  0  0  0  0  0  0  0  0  0
   -1.0554   -4.2233   -5.0059 H   0  0  0  0  0  0  0  0  0  0  0  0
    0.2937   -5.3480   -5.2318 H   0  0  0  0  0  0  0  0  0  0  0  0
   -5.5493   -0.6748   -3.7521 H   0  0  0  0  0  0  0  0  0  0  0  0
   -4.6919   -1.9523   -2.8777 H   0  0  0  0  0  0  0  0  0  0  0  0
   -3.7832   -0.7420   -3.7975 H   0  0  0  0  0  0  0  0  0  0  0  0
   -1.9349   -6.8435   -4.4525 H   0  0  0  0  0  0  0  0  0  0  0  0
   -3.1776   -7.1711   -3.2423 H   0  0  0  0  0  0  0  0  0  0  0  0
   -2.8100   -5.5007   -3.6814 H   0  0  0  0  0  0  0  0  0  0  0  0
  1  5  1  0  0  0  0
  1  7  1  0  0  0  0
  2  6  1  0  0  0  0
  2  9  1  0  0  0  0
  3  7  1  0  0  0  0
  3 12  1  0  0  0  0
  4  9  1  0  0  0  0
  4 13  1  0  0  0  0
  5  6  1  0  0  0  0
  5  8  1  0  0  0  0
  7 10  1  0  0  0  0
  9 11  1  0  0  0  0
 12 14  1  0  0  0  0
 13 15  1  0  0  0  0
  5 16  1  0  0  0  0
  7 17  1  0  0  0  0
 12 18  1  0  0  0  0
 12 19  1  0  0  0  0
  6 20  1  0  0  0  0
  6 21  1  0  0  0  0
  9 22  1  0  0  0  0
 13 23  1  0  0  0  0
 13 24  1  0  0  0  0
  8 25  1  0  0  0  0
  8 26  1  0  0  0  0
  8 27  1  0  0  0  0
 10 28  1  0  0  0  0
 10 29  1  0  0  0  0
 10 30  1  0  0  0  0
 11 31  1  0  0  0  0
 11 32  1  0  0  0  0
 11 33  1  0  0  0  0
 14 34  1  0  0  0  0
 14 35  1  0  0  0  0
 14 36  1  0  0  0  0
 15 37  1  0  0  0  0
 15 38  1  0  0  0  0
 15 39  1  0  0  0  0
M  END
>  <AuxInfo>
1/0/N:15,14,8,11,10,13,12,6,5,9,7,4,3,2,1/rA:39cOOOOCCCCCCCCCCCHHHHHHHHHHHHHHHHHHHHHHHH/rB:;;;s1;s2s5;s1s3;s5;s2s4;s7;s9;s3;s4;s12;s13;s5;s6;s6;s7;s8;s8;s8;s9;s10;s10;s10;s11;s11;s11;s12;s12;s13;s13;s14;s14;s14;s15;s15;s15;/rC:8.0622,.25,0;5.4641,-.25,0;9.7942,.25,0;3.7321,-.25,0;7.1962,-.25,0;6.3301,.25,0;8.9282,-.25,0;7.1962,-1.25,0;4.5981,.25,0;8.9282,-1.25,0;4.5981,1.25,0;10.6603,-.25,0;2.866,.25,0;11.5263,.25,0;2,-.25,0;7.7331,-.56,0;5.9316,.7249,0;6.7287,.7249,0;9.4651,-.56,0;6.5762,-1.25,0;7.1962,-1.87,0;7.8162,-1.25,0;5.135,.56,0;8.3082,-1.25,0;8.9282,-1.87,0;9.5482,-1.25,0;3.9781,1.25,0;4.5981,1.87,0;5.2181,1.25,0;10.2617,-.7249,0;11.0588,-.7249,0;3.2646,.7249,0;2.4675,.7249,0;11.8363,-.2869,0;12.0632,.56,0;11.2163,.7869,0;1.69,.2869,0;1.4631,-.56,0;2.31,-.7869,0;

>  <CSID>
4515081

>  <Formula>
C11 H24 O4

>  <Mw>
220.3059

>  <PUBCHEM_BONDANNOTATIONS>
5  8  3
7  10  3
9  11  3

>  <SMILES>
O(C([H])(C([H])([H])[H])OC([H])([H])C([H])([H])[H])C([H])(C([H])([H])[H])C([H])([H])OC([H])(C([H])([H])[H])OC([H])([H])C([H])([H])[H]

>  <StdInChI>
InChI=1S/C11H24O4/c1-6-12-10(4)14-8-9(3)15-11(5)13-7-2/h9-11H,6-8H2,1-5H3

>  <StdInChIKey>
TZVJNJVDGXFMCF-UHFFFAOYSA-N

>  <energy>
41.268836303694371

> <molfile>
c-1_2_DI_1_ETHOXY_ETHOXY_PROPANE

> <user>
Tiago

$$$$
